Circuit: *** SPICE deck for cell logic_S0R0_sim{sch} from library SIPO_register

Ignoring BSIM parameter ACM
Ignoring BSIM parameter HDIF
Ignoring BSIM parameter TLEV
Ignoring BSIM parameter ACM
Ignoring BSIM parameter HDIF
Ignoring BSIM parameter TLEV
Warning: Pd = 0 is less than W.
Warning: Ps = 0 is less than W.
Warning: Pd = 0 is less than W.
Warning: Ps = 0 is less than W.
Direct Newton iteration for .op point succeeded.

Date: Mon Dec 04 17:30:41 2023
Total elapsed time: 0.183 seconds.

tnom = 27
temp = 27
method = modified trap
totiter = 2974
traniter = 2960
tranpoints = 1233
accept = 1174
rejected = 59
matrix size = 19
fillins = 0
solver = Normal
Thread vector: 35.8/20.2[2] 4.7/3.5[2] 1.2/1.3[1] 0.1/0.6[1]  2592/500
Matrix Compiler1:      66 opcodes  0.3/[0.1]/0.1
Matrix Compiler2: 1.89 KB object code size  0.2/0.2/[0.2]


