Circuit: *** SPICE deck for cell logic_S1R1_sim{sch} from library SIPO_register

Ignoring BSIM parameter ACM
Ignoring BSIM parameter HDIF
Ignoring BSIM parameter TLEV
Ignoring BSIM parameter ACM
Ignoring BSIM parameter HDIF
Ignoring BSIM parameter TLEV
Warning: Pd = 0 is less than W.
Warning: Ps = 0 is less than W.
Warning: Pd = 0 is less than W.
Warning: Ps = 0 is less than W.
Direct Newton iteration for .op point succeeded.

Date: Mon Dec 04 17:50:30 2023
Total elapsed time: 0.229 seconds.

tnom = 27
temp = 27
method = modified trap
totiter = 3263
traniter = 3231
tranpoints = 1277
accept = 1195
rejected = 82
matrix size = 44
fillins = 14
solver = Normal
Thread vector: 92.0/21.5[6] 12.7/3.7[6] 2.9/1.4[6] 0.1/0.5[1]  2592/500
Matrix Compiler1: 4.28 KB object code size  1.1/0.4/[0.4]
Matrix Compiler2: 5.15 KB object code size  0.5/0.6/[0.4]


