Circuit: *** SPICE deck for cell simulacion_completa{sch} from library SIPO_register

Ignoring BSIM parameter ACM
Ignoring BSIM parameter HDIF
Ignoring BSIM parameter TLEV
Ignoring BSIM parameter ACM
Ignoring BSIM parameter HDIF
Ignoring BSIM parameter TLEV
Error on line 233 : vpwl@0 en gnd pwl (0us 0 49.9us 0 50us 5v 369.9us 5v 370us 0 499.9us 0 500us 5v 849.9us 5v 850us 0 r=0 td=0)
	 Unknown parameter "r"
WARNING: Node PROY_FIN@0:LOGIC_CO@0:FFSR_S@0:NMOS-4@0_B is floating.
WARNING: Node PROY_FIN@0:LOGIC_CO@0:FFSR_S@0:NMOS-4@1_B is floating.
WARNING: Node PROY_FIN@0:LOGIC_CO@0:FFSR_S@0:NMOS-4@2_B is floating.
WARNING: Node PROY_FIN@0:LOGIC_CO@0:FFSR_S@0:NMOS-4@3_B is floating.
WARNING: Node PROY_FIN@0:LOGIC_CO@0:FFSR_S@0:NMOS-4@4_B is floating.
WARNING: Node PROY_FIN@0:LOGIC_CO@0:FFSR_S@0:NMOS-4@5_B is floating.
WARNING: Node PROY_FIN@0:LOGIC_CO@0:FFSR_S@0:PMOS-4@0_B is floating.
WARNING: Node PROY_FIN@0:LOGIC_CO@0:FFSR_S@0:PMOS-4@1_B is floating.
WARNING: Node PROY_FIN@0:LOGIC_CO@0:FFSR_S@0:PMOS-4@2_B is floating.
WARNING: Node PROY_FIN@0:LOGIC_CO@0:FFSR_S@0:PMOS-4@6_B is floating.
WARNING: Node PROY_FIN@0:LOGIC_CO@0:FFSR_S@0:PMOS-4@7_B is floating.
WARNING: Node PROY_FIN@0:LOGIC_CO@0:FFSR_S@0:PMOS-4@8_B is floating.
WARNING: Node PROY_FIN@0:LOGIC_CO@0:FFSR_S@1:NMOS-4@0_B is floating.
WARNING: Node PROY_FIN@0:LOGIC_CO@0:FFSR_S@1:NMOS-4@1_B is floating.
WARNING: Node PROY_FIN@0:LOGIC_CO@0:FFSR_S@1:NMOS-4@2_B is floating.
WARNING: Node PROY_FIN@0:LOGIC_CO@0:FFSR_S@1:NMOS-4@3_B is floating.
WARNING: Node PROY_FIN@0:LOGIC_CO@0:FFSR_S@1:NMOS-4@4_B is floating.
WARNING: Node PROY_FIN@0:LOGIC_CO@0:FFSR_S@1:NMOS-4@5_B is floating.
WARNING: Node PROY_FIN@0:LOGIC_CO@0:FFSR_S@1:PMOS-4@0_B is floating.
WARNING: Node PROY_FIN@0:LOGIC_CO@0:FFSR_S@1:PMOS-4@1_B is floating.
WARNING: Node PROY_FIN@0:LOGIC_CO@0:FFSR_S@1:PMOS-4@2_B is floating.
WARNING: Node PROY_FIN@0:LOGIC_CO@0:FFSR_S@1:PMOS-4@6_B is floating.
WARNING: Node PROY_FIN@0:LOGIC_CO@0:FFSR_S@1:PMOS-4@7_B is floating.
WARNING: Node PROY_FIN@0:LOGIC_CO@0:FFSR_S@1:PMOS-4@8_B is floating.
WARNING: Node PROY_FIN@0:LOGIC_CO@0:LOGIC_R1@0:AND3@0:NMOS-4@0_B is floating.
WARNING: Node PROY_FIN@0:LOGIC_CO@0:LOGIC_R1@0:AND3@0:NMOS-4@1_B is floating.
WARNING: Node PROY_FIN@0:LOGIC_CO@0:LOGIC_R1@0:AND3@0:NMOS-4@2_B is floating.
WARNING: Node PROY_FIN@0:LOGIC_CO@0:LOGIC_R1@0:AND3@0:NMOS-4@4_B is floating.
WARNING: Node PROY_FIN@0:LOGIC_CO@0:LOGIC_R1@0:AND3@0:PMOS-4@0_B is floating.
WARNING: Node PROY_FIN@0:LOGIC_CO@0:LOGIC_R1@0:AND3@0:PMOS-4@1_B is floating.
WARNING: Node PROY_FIN@0:LOGIC_CO@0:LOGIC_R1@0:AND3@0:PMOS-4@2_B is floating.
WARNING: Node PROY_FIN@0:LOGIC_CO@0:LOGIC_R1@0:AND3@0:PMOS-4@4_B is floating.
WARNING: Node PROY_FIN@0:LOGIC_CO@0:LOGIC_S1@0:AND3@1:NMOS-4@0_B is floating.
WARNING: Node PROY_FIN@0:LOGIC_CO@0:LOGIC_S1@0:AND3@1:NMOS-4@1_B is floating.
WARNING: Node PROY_FIN@0:LOGIC_CO@0:LOGIC_S1@0:AND3@1:NMOS-4@2_B is floating.
WARNING: Node PROY_FIN@0:LOGIC_CO@0:LOGIC_S1@0:AND3@1:NMOS-4@4_B is floating.
WARNING: Node PROY_FIN@0:LOGIC_CO@0:LOGIC_S1@0:AND3@1:PMOS-4@0_B is floating.
WARNING: Node PROY_FIN@0:LOGIC_CO@0:LOGIC_S1@0:AND3@1:PMOS-4@1_B is floating.
WARNING: Node PROY_FIN@0:LOGIC_CO@0:LOGIC_S1@0:AND3@1:PMOS-4@2_B is floating.
WARNING: Node PROY_FIN@0:LOGIC_CO@0:LOGIC_S1@0:AND3@1:PMOS-4@4_B is floating.
WARNING: Node PROY_FIN@0:LOGIC_CO@0:LOGIC_S1@0:AND4@0:NMOS-4@0_B is floating.
WARNING: Node PROY_FIN@0:LOGIC_CO@0:LOGIC_S1@0:AND4@0:NMOS-4@1_B is floating.
WARNING: Node PROY_FIN@0:LOGIC_CO@0:LOGIC_S1@0:AND4@0:NMOS-4@2_B is floating.
WARNING: Node PROY_FIN@0:LOGIC_CO@0:LOGIC_S1@0:AND4@0:NMOS-4@3_B is floating.
WARNING: Node PROY_FIN@0:LOGIC_CO@0:LOGIC_S1@0:AND4@0:NMOS-4@4_B is floating.
WARNING: Node PROY_FIN@0:LOGIC_CO@0:LOGIC_S1@0:AND4@0:PMOS-4@0_B is floating.
WARNING: Node PROY_FIN@0:LOGIC_CO@0:LOGIC_S1@0:AND4@0:PMOS-4@1_B is floating.
WARNING: Node PROY_FIN@0:LOGIC_CO@0:LOGIC_S1@0:AND4@0:PMOS-4@2_B is floating.
WARNING: Node PROY_FIN@0:LOGIC_CO@0:LOGIC_S1@0:AND4@0:PMOS-4@3_B is floating.
WARNING: Node PROY_FIN@0:LOGIC_CO@0:LOGIC_S1@0:AND4@0:PMOS-4@4_B is floating.

WARNING: Less than two connections to node PROY_FIN@0:LOGIC_CO@0:FFSR_S@0:NMOS-4@0_B.  This node is used by M:PROY_FIN@0:LOGIC_CO@0:FFSR_S@0:NMOS-4@0.
WARNING: Less than two connections to node PROY_FIN@0:LOGIC_CO@0:FFSR_S@0:NMOS-4@1_B.  This node is used by M:PROY_FIN@0:LOGIC_CO@0:FFSR_S@0:NMOS-4@1.
WARNING: Less than two connections to node PROY_FIN@0:LOGIC_CO@0:FFSR_S@0:NMOS-4@2_B.  This node is used by M:PROY_FIN@0:LOGIC_CO@0:FFSR_S@0:NMOS-4@2.
WARNING: Less than two connections to node PROY_FIN@0:LOGIC_CO@0:FFSR_S@0:NMOS-4@3_B.  This node is used by M:PROY_FIN@0:LOGIC_CO@0:FFSR_S@0:NMOS-4@3.
WARNING: Less than two connections to node PROY_FIN@0:LOGIC_CO@0:FFSR_S@0:NMOS-4@4_B.  This node is used by M:PROY_FIN@0:LOGIC_CO@0:FFSR_S@0:NMOS-4@4.
WARNING: Less than two connections to node PROY_FIN@0:LOGIC_CO@0:FFSR_S@0:NMOS-4@5_B.  This node is used by M:PROY_FIN@0:LOGIC_CO@0:FFSR_S@0:NMOS-4@5.
WARNING: Less than two connections to node PROY_FIN@0:LOGIC_CO@0:FFSR_S@0:PMOS-4@0_B.  This node is used by M:PROY_FIN@0:LOGIC_CO@0:FFSR_S@0:PMOS-4@0.
WARNING: Less than two connections to node PROY_FIN@0:LOGIC_CO@0:FFSR_S@0:PMOS-4@1_B.  This node is used by M:PROY_FIN@0:LOGIC_CO@0:FFSR_S@0:PMOS-4@1.
WARNING: Less than two connections to node PROY_FIN@0:LOGIC_CO@0:FFSR_S@0:PMOS-4@2_B.  This node is used by M:PROY_FIN@0:LOGIC_CO@0:FFSR_S@0:PMOS-4@2.
WARNING: Less than two connections to node PROY_FIN@0:LOGIC_CO@0:FFSR_S@0:PMOS-4@6_B.  This node is used by M:PROY_FIN@0:LOGIC_CO@0:FFSR_S@0:PMOS-4@6.
WARNING: Less than two connections to node PROY_FIN@0:LOGIC_CO@0:FFSR_S@0:PMOS-4@7_B.  This node is used by M:PROY_FIN@0:LOGIC_CO@0:FFSR_S@0:PMOS-4@7.
WARNING: Less than two connections to node PROY_FIN@0:LOGIC_CO@0:FFSR_S@0:PMOS-4@8_B.  This node is used by M:PROY_FIN@0:LOGIC_CO@0:FFSR_S@0:PMOS-4@8.
WARNING: Less than two connections to node PROY_FIN@0:LOGIC_CO@0:FFSR_S@1:NMOS-4@0_B.  This node is used by M:PROY_FIN@0:LOGIC_CO@0:FFSR_S@1:NMOS-4@0.
WARNING: Less than two connections to node PROY_FIN@0:LOGIC_CO@0:FFSR_S@1:NMOS-4@1_B.  This node is used by M:PROY_FIN@0:LOGIC_CO@0:FFSR_S@1:NMOS-4@1.
WARNING: Less than two connections to node PROY_FIN@0:LOGIC_CO@0:FFSR_S@1:NMOS-4@2_B.  This node is used by M:PROY_FIN@0:LOGIC_CO@0:FFSR_S@1:NMOS-4@2.
WARNING: Less than two connections to node PROY_FIN@0:LOGIC_CO@0:FFSR_S@1:NMOS-4@3_B.  This node is used by M:PROY_FIN@0:LOGIC_CO@0:FFSR_S@1:NMOS-4@3.
WARNING: Less than two connections to node PROY_FIN@0:LOGIC_CO@0:FFSR_S@1:NMOS-4@4_B.  This node is used by M:PROY_FIN@0:LOGIC_CO@0:FFSR_S@1:NMOS-4@4.
WARNING: Less than two connections to node PROY_FIN@0:LOGIC_CO@0:FFSR_S@1:NMOS-4@5_B.  This node is used by M:PROY_FIN@0:LOGIC_CO@0:FFSR_S@1:NMOS-4@5.
WARNING: Less than two connections to node PROY_FIN@0:LOGIC_CO@0:FFSR_S@1:PMOS-4@0_B.  This node is used by M:PROY_FIN@0:LOGIC_CO@0:FFSR_S@1:PMOS-4@0.
WARNING: Less than two connections to node PROY_FIN@0:LOGIC_CO@0:FFSR_S@1:PMOS-4@1_B.  This node is used by M:PROY_FIN@0:LOGIC_CO@0:FFSR_S@1:PMOS-4@1.
WARNING: Less than two connections to node PROY_FIN@0:LOGIC_CO@0:FFSR_S@1:PMOS-4@2_B.  This node is used by M:PROY_FIN@0:LOGIC_CO@0:FFSR_S@1:PMOS-4@2.
WARNING: Less than two connections to node PROY_FIN@0:LOGIC_CO@0:FFSR_S@1:PMOS-4@6_B.  This node is used by M:PROY_FIN@0:LOGIC_CO@0:FFSR_S@1:PMOS-4@6.
WARNING: Less than two connections to node PROY_FIN@0:LOGIC_CO@0:FFSR_S@1:PMOS-4@7_B.  This node is used by M:PROY_FIN@0:LOGIC_CO@0:FFSR_S@1:PMOS-4@7.
WARNING: Less than two connections to node PROY_FIN@0:LOGIC_CO@0:FFSR_S@1:PMOS-4@8_B.  This node is used by M:PROY_FIN@0:LOGIC_CO@0:FFSR_S@1:PMOS-4@8.
WARNING: Less than two connections to node PROY_FIN@0:LOGIC_CO@0:LOGIC_R1@0:AND3@0:NMOS-4@0_B.  This node is used by M:PROY_FIN@0:LOGIC_CO@0:LOGIC_R1@0:AND3@0:NMOS-4@0.
WARNING: Less than two connections to node PROY_FIN@0:LOGIC_CO@0:LOGIC_R1@0:AND3@0:NMOS-4@1_B.  This node is used by M:PROY_FIN@0:LOGIC_CO@0:LOGIC_R1@0:AND3@0:NMOS-4@1.
WARNING: Less than two connections to node PROY_FIN@0:LOGIC_CO@0:LOGIC_R1@0:AND3@0:NMOS-4@2_B.  This node is used by M:PROY_FIN@0:LOGIC_CO@0:LOGIC_R1@0:AND3@0:NMOS-4@2.
WARNING: Less than two connections to node PROY_FIN@0:LOGIC_CO@0:LOGIC_R1@0:AND3@0:NMOS-4@4_B.  This node is used by M:PROY_FIN@0:LOGIC_CO@0:LOGIC_R1@0:AND3@0:NMOS-4@4.
WARNING: Less than two connections to node PROY_FIN@0:LOGIC_CO@0:LOGIC_R1@0:AND3@0:PMOS-4@0_B.  This node is used by M:PROY_FIN@0:LOGIC_CO@0:LOGIC_R1@0:AND3@0:PMOS-4@0.
WARNING: Less than two connections to node PROY_FIN@0:LOGIC_CO@0:LOGIC_R1@0:AND3@0:PMOS-4@1_B.  This node is used by M:PROY_FIN@0:LOGIC_CO@0:LOGIC_R1@0:AND3@0:PMOS-4@1.
WARNING: Less than two connections to node PROY_FIN@0:LOGIC_CO@0:LOGIC_R1@0:AND3@0:PMOS-4@2_B.  This node is used by M:PROY_FIN@0:LOGIC_CO@0:LOGIC_R1@0:AND3@0:PMOS-4@2.
WARNING: Less than two connections to node PROY_FIN@0:LOGIC_CO@0:LOGIC_R1@0:AND3@0:PMOS-4@4_B.  This node is used by M:PROY_FIN@0:LOGIC_CO@0:LOGIC_R1@0:AND3@0:PMOS-4@4.
WARNING: Less than two connections to node PROY_FIN@0:LOGIC_CO@0:LOGIC_S1@0:AND3@1:NMOS-4@0_B.  This node is used by M:PROY_FIN@0:LOGIC_CO@0:LOGIC_S1@0:AND3@1:NMOS-4@0.
WARNING: Less than two connections to node PROY_FIN@0:LOGIC_CO@0:LOGIC_S1@0:AND3@1:NMOS-4@1_B.  This node is used by M:PROY_FIN@0:LOGIC_CO@0:LOGIC_S1@0:AND3@1:NMOS-4@1.
WARNING: Less than two connections to node PROY_FIN@0:LOGIC_CO@0:LOGIC_S1@0:AND3@1:NMOS-4@2_B.  This node is used by M:PROY_FIN@0:LOGIC_CO@0:LOGIC_S1@0:AND3@1:NMOS-4@2.
WARNING: Less than two connections to node PROY_FIN@0:LOGIC_CO@0:LOGIC_S1@0:AND3@1:NMOS-4@4_B.  This node is used by M:PROY_FIN@0:LOGIC_CO@0:LOGIC_S1@0:AND3@1:NMOS-4@4.
WARNING: Less than two connections to node PROY_FIN@0:LOGIC_CO@0:LOGIC_S1@0:AND3@1:PMOS-4@0_B.  This node is used by M:PROY_FIN@0:LOGIC_CO@0:LOGIC_S1@0:AND3@1:PMOS-4@0.
WARNING: Less than two connections to node PROY_FIN@0:LOGIC_CO@0:LOGIC_S1@0:AND3@1:PMOS-4@1_B.  This node is used by M:PROY_FIN@0:LOGIC_CO@0:LOGIC_S1@0:AND3@1:PMOS-4@1.
WARNING: Less than two connections to node PROY_FIN@0:LOGIC_CO@0:LOGIC_S1@0:AND3@1:PMOS-4@2_B.  This node is used by M:PROY_FIN@0:LOGIC_CO@0:LOGIC_S1@0:AND3@1:PMOS-4@2.
WARNING: Less than two connections to node PROY_FIN@0:LOGIC_CO@0:LOGIC_S1@0:AND3@1:PMOS-4@4_B.  This node is used by M:PROY_FIN@0:LOGIC_CO@0:LOGIC_S1@0:AND3@1:PMOS-4@4.
WARNING: Less than two connections to node PROY_FIN@0:LOGIC_CO@0:LOGIC_S1@0:AND4@0:NMOS-4@0_B.  This node is used by M:PROY_FIN@0:LOGIC_CO@0:LOGIC_S1@0:AND4@0:NMOS-4@0.
WARNING: Less than two connections to node PROY_FIN@0:LOGIC_CO@0:LOGIC_S1@0:AND4@0:NMOS-4@1_B.  This node is used by M:PROY_FIN@0:LOGIC_CO@0:LOGIC_S1@0:AND4@0:NMOS-4@1.
WARNING: Less than two connections to node PROY_FIN@0:LOGIC_CO@0:LOGIC_S1@0:AND4@0:NMOS-4@2_B.  This node is used by M:PROY_FIN@0:LOGIC_CO@0:LOGIC_S1@0:AND4@0:NMOS-4@2.
WARNING: Less than two connections to node PROY_FIN@0:LOGIC_CO@0:LOGIC_S1@0:AND4@0:NMOS-4@3_B.  This node is used by M:PROY_FIN@0:LOGIC_CO@0:LOGIC_S1@0:AND4@0:NMOS-4@3.
WARNING: Less than two connections to node PROY_FIN@0:LOGIC_CO@0:LOGIC_S1@0:AND4@0:NMOS-4@4_B.  This node is used by M:PROY_FIN@0:LOGIC_CO@0:LOGIC_S1@0:AND4@0:NMOS-4@4.
WARNING: Less than two connections to node PROY_FIN@0:LOGIC_CO@0:LOGIC_S1@0:AND4@0:PMOS-4@0_B.  This node is used by M:PROY_FIN@0:LOGIC_CO@0:LOGIC_S1@0:AND4@0:PMOS-4@0.
WARNING: Less than two connections to node PROY_FIN@0:LOGIC_CO@0:LOGIC_S1@0:AND4@0:PMOS-4@1_B.  This node is used by M:PROY_FIN@0:LOGIC_CO@0:LOGIC_S1@0:AND4@0:PMOS-4@1.
WARNING: Less than two connections to node PROY_FIN@0:LOGIC_CO@0:LOGIC_S1@0:AND4@0:PMOS-4@2_B.  This node is used by M:PROY_FIN@0:LOGIC_CO@0:LOGIC_S1@0:AND4@0:PMOS-4@2.
WARNING: Less than two connections to node PROY_FIN@0:LOGIC_CO@0:LOGIC_S1@0:AND4@0:PMOS-4@3_B.  This node is used by M:PROY_FIN@0:LOGIC_CO@0:LOGIC_S1@0:AND4@0:PMOS-4@3.
WARNING: Less than two connections to node PROY_FIN@0:LOGIC_CO@0:LOGIC_S1@0:AND4@0:PMOS-4@4_B.  This node is used by M:PROY_FIN@0:LOGIC_CO@0:LOGIC_S1@0:AND4@0:PMOS-4@4.
Warning: Pd = 0 is less than W.
Warning: Ps = 0 is less than W.
Warning: Pd = 0 is less than W.
Warning: Ps = 0 is less than W.
Early termination of direct N-R iteration.
Direct Newton iteration failed to find .op point.  (Use ".option noopiter" to skip.)
Starting Gmin stepping
Gmin = 10
Gmin = 1.07374
Gmin = 0.115292
Gmin = 0.0123794
Gmin = 0.00132923
Gmin = 0.000142725
Gmin = 1.5325e-005
Gmin = 1.6455e-006
Gmin = 1.76685e-007
Gmin = 1.89714e-008
Gmin = 2.03704e-009
Gmin = 2.18725e-010
Gmin = 2.34854e-011
Gmin = 2.52173e-012
Gmin = 2.70769e-013
Gmin = 0
Gmin stepping succeeded in finding the operating point.


Date: Fri Feb 23 19:47:04 2024
Total elapsed time: 45.479 seconds.

tnom = 27
temp = 27
method = modified trap
totiter = 125528
traniter = 125120
tranpoints = 41981
accept = 32168
rejected = 9813
matrix size = 286
fillins = 604
solver = Normal
Thread vector: 834.7/411.3[4] 1294.4/164.5[4] 49.5/23.1[4] 5.1/141.6[1]  2592/500
Matrix Compiler1: 108.70 KB object code size  121.9/233.6/[54.0]
Matrix Compiler2:    3623 opcodes  22.0/[14.7]/18.6

