Circuit: *** SPICE deck for cell tb_and4{sch} from library SIPO_register

Ignoring BSIM parameter ACM
Ignoring BSIM parameter HDIF
Ignoring BSIM parameter TLEV
Ignoring BSIM parameter ACM
Ignoring BSIM parameter HDIF
Ignoring BSIM parameter TLEV
WARNING: Node AND4@0:NMOS-4@0_B is floating.
WARNING: Node AND4@0:NMOS-4@1_B is floating.
WARNING: Node AND4@0:NMOS-4@2_B is floating.
WARNING: Node AND4@0:NMOS-4@3_B is floating.
WARNING: Node AND4@0:NMOS-4@4_B is floating.
WARNING: Node AND4@0:PMOS-4@0_B is floating.
WARNING: Node AND4@0:PMOS-4@1_B is floating.
WARNING: Node AND4@0:PMOS-4@2_B is floating.
WARNING: Node AND4@0:PMOS-4@3_B is floating.
WARNING: Node AND4@0:PMOS-4@4_B is floating.

WARNING: Less than two connections to node AND4@0:NMOS-4@0_B.  This node is used by M:AND4@0:NMOS-4@0.
WARNING: Less than two connections to node AND4@0:NMOS-4@1_B.  This node is used by M:AND4@0:NMOS-4@1.
WARNING: Less than two connections to node AND4@0:NMOS-4@2_B.  This node is used by M:AND4@0:NMOS-4@2.
WARNING: Less than two connections to node AND4@0:NMOS-4@3_B.  This node is used by M:AND4@0:NMOS-4@3.
WARNING: Less than two connections to node AND4@0:NMOS-4@4_B.  This node is used by M:AND4@0:NMOS-4@4.
WARNING: Less than two connections to node AND4@0:PMOS-4@0_B.  This node is used by M:AND4@0:PMOS-4@0.
WARNING: Less than two connections to node AND4@0:PMOS-4@1_B.  This node is used by M:AND4@0:PMOS-4@1.
WARNING: Less than two connections to node AND4@0:PMOS-4@2_B.  This node is used by M:AND4@0:PMOS-4@2.
WARNING: Less than two connections to node AND4@0:PMOS-4@3_B.  This node is used by M:AND4@0:PMOS-4@3.
WARNING: Less than two connections to node AND4@0:PMOS-4@4_B.  This node is used by M:AND4@0:PMOS-4@4.
Warning: Pd = 0 is less than W.
Warning: Ps = 0 is less than W.
Warning: Pd = 0 is less than W.
Warning: Ps = 0 is less than W.
Early termination of direct N-R iteration.
Direct Newton iteration failed to find .op point.  (Use ".option noopiter" to skip.)
Starting Gmin stepping
Gmin = 10
Gmin = 1.07374
Gmin = 0.115292
Gmin = 0.0123794
Gmin = 0.00132923
Gmin = 0.000142725
Gmin = 1.5325e-005
Gmin = 1.6455e-006
Gmin = 1.76685e-007
Gmin = 1.89714e-008
Gmin = 2.03704e-009
Gmin = 2.18725e-010
Gmin = 2.34854e-011
Gmin = 2.52173e-012
Gmin = 2.70769e-013
Gmin = 0
Gmin stepping succeeded in finding the operating point.


Date: Mon Dec 04 19:06:38 2023
Total elapsed time: 0.264 seconds.

tnom = 27
temp = 27
method = modified trap
totiter = 8636
traniter = 8269
tranpoints = 2395
accept = 2031
rejected = 364
matrix size = 25
fillins = 0
solver = Normal
Matrix Compiler1: 1.79 KB object code size  0.6/0.4/[0.2]
Matrix Compiler2: off  [0.6]/0.8/0.7

