Circuit: *** SPICE deck for cell tb_r16b{sch} from library SIPO_register

Ignoring BSIM parameter ACM
Ignoring BSIM parameter HDIF
Ignoring BSIM parameter TLEV
Ignoring BSIM parameter ACM
Ignoring BSIM parameter HDIF
Ignoring BSIM parameter TLEV
WARNING: Node VCI is floating.

Warning: Pd = 0 is less than W.
Warning: Ps = 0 is less than W.
Warning: Pd = 0 is less than W.
Warning: Ps = 0 is less than W.
Direct Newton iteration for .op point succeeded.

Date: Sat Dec 09 21:23:37 2023
Total elapsed time: 4.995 seconds.

tnom = 27
temp = 27
method = modified trap
totiter = 11971
traniter = 11940
tranpoints = 4106
accept = 3201
rejected = 905
matrix size = 161
fillins = 285
solver = Normal
Thread vector: 417.1/264.0[4] 112.2/69.2[4] 42.2/93.5[1] 2.8/48.7[1]  2592/500
Matrix Compiler1: 59.63 KB object code size  23.3/15.1/[5.3]
Matrix Compiler2:    2128 opcodes  7.5/[6.8]/8.9

