Circuit: *** SPICE deck for cell tb_r16b{sch} from library SIPO_register

Ignoring BSIM parameter ACM
Ignoring BSIM parameter HDIF
Ignoring BSIM parameter TLEV
Ignoring BSIM parameter ACM
Ignoring BSIM parameter HDIF
Ignoring BSIM parameter TLEV
WARNING: Node VCI is floating.

Warning: Pd = 0 is less than W.
Warning: Ps = 0 is less than W.
Warning: Pd = 0 is less than W.
Warning: Ps = 0 is less than W.
Direct Newton iteration for .op point succeeded.

Date: Fri Feb 23 17:27:17 2024
Total elapsed time: 3.286 seconds.

tnom = 27
temp = 27
method = modified trap
totiter = 7843
traniter = 7812
tranpoints = 3201
accept = 2725
rejected = 476
matrix size = 161
fillins = 285
solver = Normal
Thread vector: 587.7/332.4[4] 123.5/83.2[4] 124.8/78.4[4] 4.4/38.8[1]  2592/500
Matrix Compiler1: 59.63 KB object code size  23.1/13.7/[8.4]
Matrix Compiler2: off  [6.9]/12.7/13.1

